/*--------------------------------*- C++ -*----------------------------------*\
| =========                 |                                                 |
| \\      /  F ield         | OpenFOAM: The Open Source CFD Toolbox           |
|  \\    /   O peration     | Version:  4.x                                   |
|   \\  /    A nd           | Web:      www.OpenFOAM.org                      |
|    \\/     M anipulation  |                                                 |
\*---------------------------------------------------------------------------*/
FoamFile
{
    version     2.0;
    format      ascii;
    class       dictionary;
    location    "system";
    object      controlDict;
}
// * * * * * * * * * * * * * * * * * * * * * * * * * * * * * * * * * * * * * //

#include        "./system/userConfigValues"

application       pimpleLPTTKEBudgetFoam;

startFrom         latestTime; // startTime; latestTime

startTime         0;
/*
stopAt:           endTime (al tiempo definido por usuario)  
                  nexWrite (proxima escritura a disco termina)
                  writeNow (escribe y termina)
                  noWriteNow (termina in escribir la ultima iteracion)
*/            
stopAt            endTime;

endTime           $valEndTimeTKE; // 0.01 transient 0.02 LPT 

deltaT            $valDeltaTTKE; // 
/*
writeControl:     runTime (every writeInterval seconds)
                  timeSteps (every writeInterval time steps)
                  adjustableRunTime (adjustable according to writeInterval seconds)
*/
writeControl      adjustableRunTime;

writeInterval     $valWriteIntervalTKE; // Aprox cada 1 tiempo de residencia

purgeWrite        0; // Important for large simulations
/*
Utility
foamFormatConvert: Convert format to the specified writeFormat value
                   binary to ascii conversion writeCompression is considered
*/
writeFormat       ascii;

writePrecision    8;

writeCompression  off;

timeFormat        fixed; // general, fixed with timePrecision decimal digits

timePrecision     8;

runTimeModifiable yes;  // yes; // yes reread controlDict each timeStep. No is more fast?

adjustTimeStep    $valAdjustTimeStepTKE;  

maxCo             $valMaxCoTKE;  // 2.0 transient - 1.5 LPT - 2.0 tke

maxDeltaT         3;

libs
(

);

// ************************************************************************* 
functions
{
      // Para que los cambian en tiempo de ejecucion se hagan se debe modificar
      // en los includes y luego modificar con espacio y guardar el controlDict
	#include "secondaryFields1"  
	#include "fieldAverage1"
	#include "monitorProbes1"
	#include "monitorSamples1"
	#include "monitorSurfaces1"	
	#include "monitorSamplesTKEConvectionTransportVP"	
	#include "monitorSamplesTKEViscDissipationTransportTurb"
	#include "monitorForces1"
      #include "integralDissipation1"
      
      tracks1 
      { 
            type    		icoUncoupledKinematicCloud; 
            libs    		("liblagrangianFunctionObjects.so"); 
            kinematicCloud 	kinematicCloud1; 
      } 
      tracks2 
      { 
            type    		icoUncoupledKinematicCloud; 
            libs    		("liblagrangianFunctionObjects.so"); 
            kinematicCloud 	kinematicCloud2; 
      } 
      tracks3 
      { 
            type    		icoUncoupledKinematicCloud; 
            libs    		("liblagrangianFunctionObjects.so"); 
            kinematicCloud 	kinematicCloud3; 
      } 
      tracks4
      { 
            type    		icoUncoupledKinematicCloud; 
            libs    		("liblagrangianFunctionObjects.so"); 
            kinematicCloud 	kinematicCloud4; 
      }
      tracks5
      { 
            type    		icoUncoupledKinematicCloud; 
            libs    		("liblagrangianFunctionObjects.so"); 
            kinematicCloud 	kinematicCloud5; 
      } 
      tracks6 
      { 
            type    		icoUncoupledKinematicCloud; 
            libs    		("liblagrangianFunctionObjects.so"); 
            kinematicCloud 	kinematicCloud6; 
      }
      tracks7 
      { 
            type    		icoUncoupledKinematicCloud; 
            libs    		("liblagrangianFunctionObjects.so"); 
            kinematicCloud 	kinematicCloud7; 
      }
}
