/*--------------------------------*- C++ -*----------------------------------*\
| =========                 |                                                 |
| \\      /  F ield         | OpenFOAM: The Open Source CFD Toolbox           |
|  \\    /   O peration     | Version:  5                                     |
|   \\  /    A nd           | Web:      www.OpenFOAM.org                      |
|    \\/     M anipulation  |                                                 |
\*---------------------------------------------------------------------------*/
FoamFile
{
    version     2.0;
    format      ascii;
    class       dictionary;
    location    "constant";
    object      scalarListList;
}
// * * * * * * * * * * * * * * * * * * * * * * * * * * * * * * * * * * * * * //

(
// (x y z) (u v w) d rho mDot
(0.046796 -0.014284 -0.00066502)(-8.9792 0 0) 1.276e-05 895 1
(0.046796 -0.010367 -0.0037109)(-8.9273 0 0) 1.276e-05 895 1
(0.046796 -0.0085156 0.0029549)(-9.2102 0 0) 1.276e-05 895 1
(0.046796 -0.013774 0.0026244)(-5.9852 0 0) 1.276e-05 895 1
(0.046796 -0.012963 0.001378)(-10.7392 0 0) 1.276e-05 895 1
(0.046796 -0.013084 0.0031659)(-7.22 0 0) 1.276e-05 895 1
(0.046796 -0.0098827 0.00054312)(-11.4179 0 0) 1.276e-05 895 1
(0.046796 -0.010022 -0.00097546)(-11.3767 0 0) 1.276e-05 895 1
(0.046796 -0.012812 0.0025197)(-9.9469 0 0) 1.276e-05 895 1
(0.046796 -0.013269 0.0010366)(-10.6225 0 0) 1.276e-05 895 1
(0.046796 -0.013067 0.0030764)(-7.9133 0 0) 1.276e-05 895 1
(0.046796 -0.014377 -0.0013575)(-7.4419 0 0) 1.276e-05 895 1
(0.046796 -0.010118 0.0034606)(-9.5877 0 0) 1.276e-05 895 1
(0.046796 -0.0081809 0.001181)(-10.7196 0 0) 1.276e-05 895 1
(0.046796 -0.01081 0.0019444)(-11.1557 0 0) 1.276e-05 895 1
(0.046796 -0.0088262 0.0022794)(-10.5365 0 0) 1.276e-05 895 1
(0.046796 -0.012191 0.0024825)(-10.5176 0 0) 1.276e-05 895 1
(0.046796 -0.0087383 0.00081239)(-11.1084 0 0) 1.276e-05 895 1
(0.046796 -0.012455 0.00345)(-8.0507 0 0) 1.276e-05 895 1
(0.046796 -0.011465 -0.0030513)(-10.2206 0 0) 1.276e-05 895 1
(0.046796 -0.008306 0.0010153)(-10.8401 0 0) 1.276e-05 895 1
(0.046796 -0.012406 0.00061022)(-11.1864 0 0) 1.276e-05 895 1
(0.046796 -0.013053 0.00091194)(-10.8181 0 0) 1.276e-05 895 1
(0.046796 -0.0082021 -0.0028731)(-8.7454 0 0) 1.276e-05 895 1
(0.046796 -0.010494 -0.00053051)(-11.474 0 0) 1.276e-05 895 1
(0.046796 -0.0096189 -0.0025338)(-10.7151 0 0) 1.276e-05 895 1
(0.046796 -0.011888 0.0028967)(-10.2302 0 0) 1.276e-05 895 1
(0.046796 -0.010151 -0.00073523)(-11.4259 0 0) 1.276e-05 895 1
(0.046796 -0.0070093 0.00091844)(-8.8428 0 0) 1.276e-05 895 1
(0.046796 -0.01254 -0.0010272)(-11.0642 0 0) 1.276e-05 895 1
(0.046796 -0.010227 -0.0025398)(-10.8232 0 0) 1.276e-05 895 1
(0.046796 -0.01148 0.0024331)(-10.8222 0 0) 1.276e-05 895 1
(0.046796 -0.012446 0.0028612)(-9.8383 0 0) 1.276e-05 895 1
(0.046796 -0.009332 0.0033734)(-9.2732 0 0) 1.276e-05 895 1
(0.046796 -0.013747 -0.00028711)(-10.2756 0 0) 1.276e-05 895 1
(0.046796 -0.006856 -0.0017877)(-3.283 0 0) 1.276e-05 895 1
(0.046796 -0.0082156 -0.0022138)(-10.0303 0 0) 1.276e-05 895 1
(0.046796 -0.011788 -0.0021371)(-10.9141 0 0) 1.276e-05 895 1
(0.046796 -0.012513 -0.00090873)(-11.1002 0 0) 1.276e-05 895 1
(0.046796 -0.011129 -0.00272)(-10.6842 0 0) 1.276e-05 895 1
(0.046796 -0.01125 -0.0033064)(-9.8816 0 0) 1.276e-05 895 1
(0.046796 -0.007965 -0.0017321)(-10.186 0 0) 1.276e-05 895 1
(0.046796 -0.00975 -0.0040313)(-5.1255 0 0) 1.276e-05 895 1
(0.046796 -0.0094232 0.002783)(-10.3907 0 0) 1.276e-05 895 1
(0.046796 -0.0098987 0.0024087)(-10.8544 0 0) 1.276e-05 895 1
(0.046796 -0.0069688 -0.00025697)(-9.0807 0 0) 1.276e-05 895 1
(0.046796 -0.0098683 -0.0024018)(-10.8528 0 0) 1.276e-05 895 1
(0.046796 -0.0082331 0.0029734)(-8.4813 0 0) 1.276e-05 895 1
(0.046796 -0.012629 0.0019698)(-10.6487 0 0) 1.276e-05 895 1
(0.046796 -0.0071704 -0.0020229)(-7.0775 0 0) 1.276e-05 895 1
(0.046796 -0.013096 -0.0032009)(-6.8134 0 0) 1.276e-05 895 1
(0.046796 -0.0078771 0.00022255)(-10.6791 0 0) 1.276e-05 895 1
(0.046796 -0.010054 -0.001379)(-11.2999 0 0) 1.276e-05 895 1
(0.046796 -0.0096973 0.0023368)(-10.8548 0 0) 1.276e-05 895 1
(0.046796 -0.011533 0.0025623)(-10.7296 0 0) 1.276e-05 895 1
(0.046796 -0.006663 -0.0010148)(-5.7339 0 0) 1.276e-05 895 1
(0.046796 -0.011736 -0.0026312)(-10.5996 0 0) 1.276e-05 895 1
(0.046796 -0.0099558 -0.0034246)(-9.6058 0 0) 1.276e-05 895 1
(0.046796 -0.0085912 -0.00089701)(-11.0277 0 0) 1.276e-05 895 1
(0.046796 -0.0091992 4.8158e-05)(-11.3143 0 0) 1.276e-05 895 1
(0.046796 -0.01355 -0.0022071)(-9.1579 0 0) 1.276e-05 895 1
(0.046796 -0.0067639 -0.00018929)(-8.1841 0 0) 1.276e-05 895 1
(0.046796 -0.013445 -0.0009823)(-10.4662 0 0) 1.276e-05 895 1
(0.046796 -0.01092 -8.9396e-06)(-11.4995 0 0) 1.276e-05 895 1
(0.046796 -0.0076007 0.0016699)(-9.6663 0 0) 1.276e-05 895 1
(0.046796 -0.012982 0.0022033)(-10.136 0 0) 1.276e-05 895 1
(0.046796 -0.0070981 -0.00026173)(-9.4635 0 0) 1.276e-05 895 1
(0.046796 -0.013009 0.0024709)(-9.756 0 0) 1.276e-05 895 1
(0.046796 -0.0084178 -0.00068002)(-10.9804 0 0) 1.276e-05 895 1
(0.046796 -0.009678 -0.0034881)(-9.2717 0 0) 1.276e-05 895 1
(0.046796 -0.014657 0.00061587)(-6.3782 0 0) 1.276e-05 895 1
(0.046796 -0.012287 -0.0010823)(-11.1475 0 0) 1.276e-05 895 1
(0.046796 -0.0082476 -0.0023162)(-9.9469 0 0) 1.276e-05 895 1
(0.046796 -0.0070852 -0.0016762)(-7.8553 0 0) 1.276e-05 895 1
(0.046796 -0.0094882 -0.00036223)(-11.3664 0 0) 1.276e-05 895 1
(0.046796 -0.011235 -0.0021354)(-11.0363 0 0) 1.276e-05 895 1
(0.046796 -0.010931 -0.0017382)(-11.2234 0 0) 1.276e-05 895 1
(0.046796 -0.011145 -0.0021082)(-11.0609 0 0) 1.276e-05 895 1
(0.046796 -0.010627 -0.00078093)(-11.442 0 0) 1.276e-05 895 1
(0.046796 -0.012776 0.0009696)(-10.9656 0 0) 1.276e-05 895 1
(0.046796 -0.013933 -0.0016986)(-8.9757 0 0) 1.276e-05 895 1
(0.046796 -0.014138 0.0016447)(-8.2459 0 0) 1.276e-05 895 1
(0.046796 -0.010838 -0.0010839)(-11.3868 0 0) 1.276e-05 895 1
(0.046796 -0.0074198 0.0019346)(-8.7949 0 0) 1.276e-05 895 1
(0.046796 -0.0089933 0.0016372)(-10.9811 0 0) 1.276e-05 895 1
(0.046796 -0.010964 -0.0020438)(-11.1067 0 0) 1.276e-05 895 1
(0.046796 -0.010523 -0.0034535)(-9.6894 0 0) 1.276e-05 895 1
(0.046796 -0.01066 0.0027971)(-10.6524 0 0) 1.276e-05 895 1
(0.046796 -0.011464 0.0025792)(-10.7348 0 0) 1.276e-05 895 1
(0.046796 -0.0088157 -2.5986e-05)(-11.2035 0 0) 1.276e-05 895 1
(0.046796 -0.011062 0.0018274)(-11.1844 0 0) 1.276e-05 895 1
(0.046796 -0.010053 -0.00027561)(-11.4615 0 0) 1.276e-05 895 1
(0.046796 -0.0090931 0.0038008)(-5.721 0 0) 1.276e-05 895 1
(0.046796 -0.010773 -0.00084156)(-11.4307 0 0) 1.276e-05 895 1
(0.046796 -0.011738 0.0024918)(-10.7213 0 0) 1.276e-05 895 1
(0.046796 -0.011217 0.0027991)(-10.5921 0 0) 1.276e-05 895 1
(0.046796 -0.0069032 -0.0017875)(-4.7882 0 0) 1.276e-05 895 1
(0.046796 -0.011511 0.003495)(-9.3162 0 0) 1.276e-05 895 1
(0.046796 -0.012388 0.003722)(-5.4935 0 0) 1.276e-05 895 1
(0.046796 -0.013714 -0.0002024)(-10.3298 0 0) 1.276e-05 895 1
(0.046796 -0.010563 -0.0023472)(-10.9652 0 0) 1.276e-05 895 1
(0.046796 -0.014002 -0.0010461)(-9.5286 0 0) 1.276e-05 895 1
(0.046796 -0.011914 -0.0017221)(-11.0729 0 0) 1.276e-05 895 1
(0.046796 -0.0096493 -0.0029174)(-10.334 0 0) 1.276e-05 895 1
(0.046796 -0.012847 -0.0030388)(-8.7837 0 0) 1.276e-05 895 1
(0.046796 -0.0089391 0.00035794)(-11.232 0 0) 1.276e-05 895 1
(0.046796 -0.0087541 5.8944e-05)(-11.1814 0 0) 1.276e-05 895 1
(0.046796 -0.014563 0.00049869)(-7.6313 0 0) 1.276e-05 895 1
(0.046796 -0.010395 0.0019788)(-11.1392 0 0) 1.276e-05 895 1
(0.046796 -0.0093991 -0.00044339)(-11.3429 0 0) 1.276e-05 895 1
(0.046796 -0.0095508 0.00025404)(-11.3841 0 0) 1.276e-05 895 1
(0.046796 -0.013243 0.00041401)(-10.786 0 0) 1.276e-05 895 1
(0.046796 -0.009976 0.0008993)(-11.384 0 0) 1.276e-05 895 1
(0.046796 -0.0093281 0.0006302)(-11.3109 0 0) 1.276e-05 895 1
(0.046796 -0.0071408 0.001249)(-8.9555 0 0) 1.276e-05 895 1
(0.046796 -0.010506 -0.00040384)(-11.4875 0 0) 1.276e-05 895 1
(0.046796 -0.011353 -0.0027787)(-10.5809 0 0) 1.276e-05 895 1
(0.046796 -0.012847 -0.0029436)(-9.0714 0 0) 1.276e-05 895 1
(0.046796 -0.0084806 0.0014817)(-10.7986 0 0) 1.276e-05 895 1
(0.046796 -0.0084001 0.0032533)(-7.6983 0 0) 1.276e-05 895 1
(0.046796 -0.0071918 -0.00061661)(-9.5853 0 0) 1.276e-05 895 1
(0.046796 -0.013823 0.0015016)(-9.5328 0 0) 1.276e-05 895 1
(0.046796 -0.012662 -0.00321)(-8.6198 0 0) 1.276e-05 895 1
(0.046796 -0.0097089 0.0019642)(-11.0588 0 0) 1.276e-05 895 1
(0.046796 -0.011724 0.0028893)(-10.3254 0 0) 1.276e-05 895 1
(0.046796 -0.0109 0.0014473)(-11.3065 0 0) 1.276e-05 895 1
(0.046796 -0.014624 3.7883e-05)(-7.3587 0 0) 1.276e-05 895 1
(0.046796 -0.0069642 4.4637e-05)(-9.0948 0 0) 1.276e-05 895 1
(0.046796 -0.0087675 -0.0026881)(-10.0417 0 0) 1.276e-05 895 1
(0.046796 -0.011097 0.0026332)(-10.7626 0 0) 1.276e-05 895 1
(0.046796 -0.010022 0.0016297)(-11.23 0 0) 1.276e-05 895 1
(0.046796 -0.014194 -0.00097114)(-9.0488 0 0) 1.276e-05 895 1
(0.046796 -0.0079149 -0.0029854)(-6.7563 0 0) 1.276e-05 895 1
(0.046796 -0.010315 -0.0039471)(-7.6012 0 0) 1.276e-05 895 1
(0.046796 -0.010596 0.0015961)(-11.2734 0 0) 1.276e-05 895 1
(0.046796 -0.0087484 -0.00089791)(-11.0969 0 0) 1.276e-05 895 1
(0.046796 -0.0083695 -0.0016765)(-10.6301 0 0) 1.276e-05 895 1
(0.046796 -0.0099329 -0.0016864)(-11.2016 0 0) 1.276e-05 895 1
(0.046796 -0.010391 -0.0033981)(-9.7931 0 0) 1.276e-05 895 1
(0.046796 -0.01193 0.0033166)(-9.4359 0 0) 1.276e-05 895 1
(0.046796 -0.014353 0.001622)(-6.5687 0 0) 1.276e-05 895 1
(0.046796 -0.0090643 0.0022274)(-10.7186 0 0) 1.276e-05 895 1
(0.046796 -0.011005 -0.0041335)(-4.489 0 0) 1.276e-05 895 1
(0.046796 -0.013128 0.0030684)(-7.6727 0 0) 1.276e-05 895 1
(0.046796 -0.012546 -0.0022957)(-10.4529 0 0) 1.276e-05 895 1
(0.046796 -0.0072626 -0.0016748)(-8.74 0 0) 1.276e-05 895 1
(0.046796 -0.014306 -0.0016955)(-6.7487 0 0) 1.276e-05 895 1
(0.046796 -0.010251 0.00017067)(-11.4877 0 0) 1.276e-05 895 1
(0.046796 -0.013731 0.0026927)(-5.753 0 0) 1.276e-05 895 1
(0.046796 -0.011494 0.0035202)(-9.2564 0 0) 1.276e-05 895 1
(0.046796 -0.0074822 -0.0026403)(-5.4621 0 0) 1.276e-05 895 1
(0.046796 -0.0080545 0.0021119)(-9.9314 0 0) 1.276e-05 895 1
(0.046796 -0.011125 -0.0003765)(-11.4655 0 0) 1.276e-05 895 1
(0.046796 -0.011366 -0.0025337)(-10.7869 0 0) 1.276e-05 895 1
(0.046796 -0.010481 0.00088464)(-11.4232 0 0) 1.276e-05 895 1
(0.046796 -0.012821 -0.00092594)(-10.9511 0 0) 1.276e-05 895 1
(0.046796 -0.0092542 0.003478)(-8.8415 0 0) 1.276e-05 895 1
(0.046796 -0.0075388 -0.00011076)(-10.3065 0 0) 1.276e-05 895 1
(0.046796 -0.010606 -0.0017482)(-11.228 0 0) 1.276e-05 895 1
(0.046796 -0.0097014 -0.00091274)(-11.3447 0 0) 1.276e-05 895 1
(0.046796 -0.0090356 -0.00080322)(-11.2138 0 0) 1.276e-05 895 1
(0.046796 -0.011452 0.0024759)(-10.8045 0 0) 1.276e-05 895 1
(0.046796 -0.010131 -0.0031833)(-10.1259 0 0) 1.276e-05 895 1
(0.046796 -0.012432 0.0022732)(-10.5528 0 0) 1.276e-05 895 1
(0.046796 -0.011594 0.002691)(-10.5948 0 0) 1.276e-05 895 1
(0.046796 -0.0075105 -0.0014472)(-9.7109 0 0) 1.276e-05 895 1
(0.046796 -0.01119 -0.00016274)(-11.4707 0 0) 1.276e-05 895 1
(0.046796 -0.013416 -0.0031168)(-3.5663 0 0) 1.276e-05 895 1
(0.046796 -0.01415 -0.0020852)(-6.0667 0 0) 1.276e-05 895 1
(0.046796 -0.0068023 5.4852e-06)(-8.424 0 0) 1.276e-05 895 1
(0.046796 -0.0095969 0.003431)(-9.3653 0 0) 1.276e-05 895 1
(0.046796 -0.012143 0.0019622)(-10.884 0 0) 1.276e-05 895 1
(0.046796 -0.0094713 -0.00040747)(-11.3602 0 0) 1.276e-05 895 1
(0.046796 -0.013569 -0.0011716)(-10.2279 0 0) 1.276e-05 895 1
(0.046796 -0.0069673 -0.00032296)(-9.0578 0 0) 1.276e-05 895 1
(0.046796 -0.0078946 0.001717)(-10.1058 0 0) 1.276e-05 895 1
(0.046796 -0.010328 0.0035028)(-9.5462 0 0) 1.276e-05 895 1
(0.046796 -0.010448 -0.0033189)(-9.9538 0 0) 1.276e-05 895 1
(0.046796 -0.0092542 0.00093286)(-11.2528 0 0) 1.276e-05 895 1
(0.046796 -0.0069449 -0.0012041)(-8.1491 0 0) 1.276e-05 895 1
(0.046796 -0.012356 -0.0010719)(-11.1261 0 0) 1.276e-05 895 1
(0.046796 -0.013961 0.001553)(-9.1123 0 0) 1.276e-05 895 1
(0.046796 -0.012938 0.0023977)(-9.9562 0 0) 1.276e-05 895 1
(0.046796 -0.007048 -0.0010444)(-8.8596 0 0) 1.276e-05 895 1
(0.046796 -0.012987 0.00059514)(-10.9165 0 0) 1.276e-05 895 1
(0.046796 -0.013714 0.0012834)(-9.9374 0 0) 1.276e-05 895 1
(0.046796 -0.014538 -0.0012004)(-6.1296 0 0) 1.276e-05 895 1
(0.046796 -0.011868 -0.0022698)(-10.8183 0 0) 1.276e-05 895 1
(0.046796 -0.012402 0.0019714)(-10.7812 0 0) 1.276e-05 895 1
(0.046796 -0.0068558 0.00065426)(-8.4097 0 0) 1.276e-05 895 1
(0.046796 -0.010338 -0.0038681)(-8.1754 0 0) 1.276e-05 895 1
(0.046796 -0.0097233 7.1741e-05)(-11.4201 0 0) 1.276e-05 895 1
(0.046796 -0.011453 -0.002903)(-10.4166 0 0) 1.276e-05 895 1
(0.046796 -0.010817 -0.003406)(-9.7854 0 0) 1.276e-05 895 1
(0.046796 -0.011664 -0.0011762)(-11.2831 0 0) 1.276e-05 895 1
(0.046796 -0.012831 0.0010812)(-10.9018 0 0) 1.276e-05 895 1
(0.046796 -0.011891 0.0018306)(-11.0357 0 0) 1.276e-05 895 1
(0.046796 -0.010324 -0.003988)(-7.2257 0 0) 1.276e-05 895 1
(0.046796 -0.012723 -0.001576)(-10.8001 0 0) 1.276e-05 895 1
(0.046796 -0.011923 0.0037995)(-7.1122 0 0) 1.276e-05 895 1
(0.046796 -0.012485 -0.000373)(-11.1812 0 0) 1.276e-05 895 1
(0.046796 -0.011093 0.0041132)(-4.8361 0 0) 1.276e-05 895 1
(0.046796 -0.011113 0.0011988)(-11.3486 0 0) 1.276e-05 895 1
(0.046796 -0.0092915 0.003319)(-9.3758 0 0) 1.276e-05 895 1
(0.046796 -0.0079421 -0.0014976)(-10.3297 0 0) 1.276e-05 895 1
(0.046796 -0.0084006 0.0017517)(-10.6096 0 0) 1.276e-05 895 1
(0.046796 -0.011289 0.0019054)(-11.1309 0 0) 1.276e-05 895 1
(0.046796 -0.013302 -0.0013896)(-10.4293 0 0) 1.276e-05 895 1
(0.046796 -0.012908 0.0001148)(-11.0071 0 0) 1.276e-05 895 1
(0.046796 -0.011697 -0.0010331)(-11.3043 0 0) 1.276e-05 895 1
(0.046796 -0.010929 0.00088927)(-11.4169 0 0) 1.276e-05 895 1
(0.046796 -0.0065935 -0.0006227)(-5.9407 0 0) 1.276e-05 895 1
(0.046796 -0.0071621 -0.0017071)(-8.2206 0 0) 1.276e-05 895 1
(0.046796 -0.011561 0.0021352)(-10.9778 0 0) 1.276e-05 895 1
(0.046796 -0.01367 0.0011859)(-10.0726 0 0) 1.276e-05 895 1
(0.046796 -0.0073607 -0.00081218)(-9.8558 0 0) 1.276e-05 895 1
(0.046796 -0.011738 -0.0011674)(-11.2712 0 0) 1.276e-05 895 1
(0.046796 -0.0074065 -0.00037279)(-10.0788 0 0) 1.276e-05 895 1
(0.046796 -0.011485 0.0017581)(-11.1559 0 0) 1.276e-05 895 1
(0.046796 -0.0096807 -0.00029608)(-11.4053 0 0) 1.276e-05 895 1
(0.046796 -0.010655 0.0038165)(-8.5179 0 0) 1.276e-05 895 1
(0.046796 -0.007585 -0.0013565)(-9.9242 0 0) 1.276e-05 895 1
(0.046796 -0.0073365 -0.0003779)(-9.957 0 0) 1.276e-05 895 1
(0.046796 -0.0079414 0.0029437)(-7.3123 0 0) 1.276e-05 895 1
(0.046796 -0.0066198 0.00081408)(-5.7883 0 0) 1.276e-05 895 1
(0.046796 -0.0094323 -0.00079918)(-11.3126 0 0) 1.276e-05 895 1
(0.046796 -0.0086631 -0.0012433)(-10.9739 0 0) 1.276e-05 895 1
(0.046796 -0.014751 -0.00067822)(-3.8065 0 0) 1.276e-05 895 1
(0.046796 -0.010117 0.00079365)(-11.4146 0 0) 1.276e-05 895 1
(0.046796 -0.00688 0.00085975)(-8.32 0 0) 1.276e-05 895 1
(0.046796 -0.008551 0.0011784)(-10.9353 0 0) 1.276e-05 895 1
(0.046796 -0.013912 0.0013223)(-9.5092 0 0) 1.276e-05 895 1
(0.046796 -0.0081163 0.0031496)(-6.8347 0 0) 1.276e-05 895 1
(0.046796 -0.010181 -0.0024989)(-10.8417 0 0) 1.276e-05 895 1
(0.046796 -0.014327 -0.0014909)(-7.4362 0 0) 1.276e-05 895 1
(0.046796 -0.011506 0.002547)(-10.7491 0 0) 1.276e-05 895 1
(0.046796 -0.011565 0.0019047)(-11.0846 0 0) 1.276e-05 895 1
(0.046796 -0.011807 0.0029112)(-10.2554 0 0) 1.276e-05 895 1
(0.046796 -0.0083496 0.00059111)(-10.9565 0 0) 1.276e-05 895 1
(0.046796 -0.012312 0.0027369)(-10.1494 0 0) 1.276e-05 895 1
(0.046796 -0.010803 -0.0036584)(-9.1327 0 0) 1.276e-05 895 1
(0.046796 -0.0065573 0.00031481)(-5.9265 0 0) 1.276e-05 895 1
(0.046796 -0.011319 0.0007769)(-11.3996 0 0) 1.276e-05 895 1
(0.046796 -0.013925 0.0025634)(-3.8383 0 0) 1.276e-05 895 1
(0.046796 -0.012667 0.0026421)(-9.9404 0 0) 1.276e-05 895 1
(0.046796 -0.0088327 -0.00095592)(-11.1187 0 0) 1.276e-05 895 1
(0.046796 -0.012549 -0.0028281)(-9.7799 0 0) 1.276e-05 895 1
(0.046796 -0.010058 0.0011139)(-11.3559 0 0) 1.276e-05 895 1
(0.046796 -0.0083765 0.00078403)(-10.9375 0 0) 1.276e-05 895 1
(0.046796 -0.013451 0.0013423)(-10.2836 0 0) 1.276e-05 895 1
(0.046796 -0.010304 -0.0030817)(-10.3079 0 0) 1.276e-05 895 1
(0.046796 -0.010165 0.0024013)(-10.9008 0 0) 1.276e-05 895 1
(0.046796 -0.0096829 0.001522)(-11.2122 0 0) 1.276e-05 895 1
(0.046796 -0.012068 0.0017165)(-11.0276 0 0) 1.276e-05 895 1
(0.046796 -0.011722 -7.0016e-05)(-11.3896 0 0) 1.276e-05 895 1
(0.046796 -0.011141 0.00085513)(-11.407 0 0) 1.276e-05 895 1
(0.046796 -0.011134 -0.00018953)(-11.4762 0 0) 1.276e-05 895 1
(0.046796 -0.008154 -0.0028335)(-8.7393 0 0) 1.276e-05 895 1
(0.046796 -0.010127 0.0034752)(-9.556 0 0) 1.276e-05 895 1
(0.046796 -0.012419 -0.0022112)(-10.6112 0 0) 1.276e-05 895 1
(0.046796 -0.0097587 0.0022575)(-10.9173 0 0) 1.276e-05 895 1
(0.046796 -0.010549 -0.0025905)(-10.8126 0 0) 1.276e-05 895 1
(0.046796 -0.0074999 -0.00051202)(-10.1945 0 0) 1.276e-05 895 1
(0.046796 -0.0090741 -0.0037549)(-6.3659 0 0) 1.276e-05 895 1
(0.046796 -0.0081302 8.6982e-05)(-10.8611 0 0) 1.276e-05 895 1
(0.046796 -0.0088575 0.0037025)(-5.6009 0 0) 1.276e-05 895 1
(0.046796 -0.0076845 0.00013159)(-10.4871 0 0) 1.276e-05 895 1
(0.046796 -0.0084696 -0.0013556)(-10.8322 0 0) 1.276e-05 895 1
(0.046796 -0.010959 -0.0015198)(-11.2852 0 0) 1.276e-05 895 1
(0.046796 -0.0098829 0.0031224)(-10.1434 0 0) 1.276e-05 895 1
(0.046796 -0.011257 0.0027964)(-10.5862 0 0) 1.276e-05 895 1
(0.046796 -0.0081662 0.0016989)(-10.4367 0 0) 1.276e-05 895 1
(0.046796 -0.013323 -0.0023784)(-9.3606 0 0) 1.276e-05 895 1
(0.046796 -0.0091844 0.0012974)(-11.1573 0 0) 1.276e-05 895 1
(0.046796 -0.0095219 0.0038426)(-7.2165 0 0) 1.276e-05 895 1
(0.046796 -0.014113 -0.00099608)(-9.2777 0 0) 1.276e-05 895 1
(0.046796 -0.010365 0.00084847)(-11.4244 0 0) 1.276e-05 895 1
(0.046796 -0.0096701 -0.0027642)(-10.5178 0 0) 1.276e-05 895 1
(0.046796 -0.012379 -0.001903)(-10.8194 0 0) 1.276e-05 895 1
(0.046796 -0.013789 -0.001009)(-9.9814 0 0) 1.276e-05 895 1
(0.046796 -0.0087589 -0.0022162)(-10.5432 0 0) 1.276e-05 895 1
(0.046796 -0.0083745 -0.00064571)(-10.9623 0 0) 1.276e-05 895 1
(0.046796 -0.0094123 -0.0027447)(-10.4285 0 0) 1.276e-05 895 1
(0.046796 -0.01152 0.0013964)(-11.2578 0 0) 1.276e-05 895 1
(0.046796 -0.014313 -0.0015316)(-7.4054 0 0) 1.276e-05 895 1
(0.046796 -0.008322 -0.0001461)(-10.9812 0 0) 1.276e-05 895 1
(0.046796 -0.0086204 -0.00096276)(-11.0273 0 0) 1.276e-05 895 1
(0.046796 -0.0093186 -0.0019376)(-10.9678 0 0) 1.276e-05 895 1
(0.046796 -0.011743 0.001508)(-11.1866 0 0) 1.276e-05 895 1
(0.046796 -0.013797 -0.0011052)(-9.9115 0 0) 1.276e-05 895 1
(0.046796 -0.0072284 0.0013846)(-9.0744 0 0) 1.276e-05 895 1
(0.046796 -0.013988 -0.0013302)(-9.3083 0 0) 1.276e-05 895 1
(0.046796 -0.0067191 -6.7994e-05)(-7.9191 0 0) 1.276e-05 895 1
(0.046796 -0.010196 0.0041276)(-4.4467 0 0) 1.276e-05 895 1
(0.046796 -0.012428 0.0018987)(-10.8024 0 0) 1.276e-05 895 1
(0.046796 -0.0093871 0.00096182)(-11.2786 0 0) 1.276e-05 895 1
(0.046796 -0.0087826 0.0010501)(-11.0787 0 0) 1.276e-05 895 1
(0.046796 -0.0080956 -0.00054377)(-10.8085 0 0) 1.276e-05 895 1
(0.046796 -0.0094818 -0.002268)(-10.8387 0 0) 1.276e-05 895 1
(0.046796 -0.011955 0.002969)(-10.0857 0 0) 1.276e-05 895 1
(0.046796 -0.0091784 -0.00062101)(-11.2764 0 0) 1.276e-05 895 1
(0.046796 -0.0097128 -0.00042908)(-11.4021 0 0) 1.276e-05 895 1
(0.046796 -0.014076 0.00025015)(-9.7072 0 0) 1.276e-05 895 1
(0.046796 -0.010965 0.0039637)(-7.4522 0 0) 1.276e-05 895 1
(0.046796 -0.014458 -0.0012606)(-6.9764 0 0) 1.276e-05 895 1
(0.046796 -0.010845 -0.0020691)(-11.1024 0 0) 1.276e-05 895 1
(0.046796 -0.008248 0.00030161)(-10.9268 0 0) 1.276e-05 895 1
(0.046796 -0.010116 -0.0012787)(-11.3282 0 0) 1.276e-05 895 1
(0.046796 -0.0076131 -0.0025757)(-7.4941 0 0) 1.276e-05 895 1
(0.046796 -0.0097753 -0.0029404)(-10.3551 0 0) 1.276e-05 895 1
(0.046796 -0.012985 -0.0030287)(-8.4401 0 0) 1.276e-05 895 1
(0.046796 -0.012381 -0.0031085)(-9.4235 0 0) 1.276e-05 895 1
(0.046796 -0.011797 0.0031669)(-9.8626 0 0) 1.276e-05 895 1
(0.046796 -0.010333 -0.0029559)(-10.4691 0 0) 1.276e-05 895 1
(0.046796 -0.0089703 -0.00087046)(-11.1827 0 0) 1.276e-05 895 1
(0.046796 -0.012823 -0.00096257)(-10.941 0 0) 1.276e-05 895 1
(0.046796 -0.0088144 -0.0008695)(-11.1283 0 0) 1.276e-05 895 1
(0.046796 -0.011732 0.0027673)(-10.464 0 0) 1.276e-05 895 1
(0.046796 -0.006939 -0.00060683)(-8.8216 0 0) 1.276e-05 895 1
(0.046796 -0.013287 -0.0012445)(-10.519 0 0) 1.276e-05 895 1
(0.046796 -0.01412 -0.0011594)(-9.1041 0 0) 1.276e-05 895 1
(0.046796 -0.0099501 0.0019056)(-11.1258 0 0) 1.276e-05 895 1
(0.046796 -0.011742 -0.0028714)(-10.3391 0 0) 1.276e-05 895 1
(0.046796 -0.010252 -0.0014863)(-11.29 0 0) 1.276e-05 895 1
(0.046796 -0.01214 -0.001612)(-11.0432 0 0) 1.276e-05 895 1
(0.046796 -0.0098909 -0.0022612)(-10.9452 0 0) 1.276e-05 895 1
(0.046796 -0.010517 -0.0011972)(-11.3668 0 0) 1.276e-05 895 1
(0.046796 -0.01296 -0.0010286)(-10.8416 0 0) 1.276e-05 895 1
(0.046796 -0.010168 0.0038184)(-8.3608 0 0) 1.276e-05 895 1
(0.046796 -0.0097508 -0.0028425)(-10.462 0 0) 1.276e-05 895 1
(0.046796 -0.012904 -0.0019352)(-10.4586 0 0) 1.276e-05 895 1
(0.046796 -0.010509 -0.0032565)(-10.0679 0 0) 1.276e-05 895 1
(0.046796 -0.011367 -0.0035376)(-9.2885 0 0) 1.276e-05 895 1
(0.046796 -0.0098593 -0.002137)(-11.0066 0 0) 1.276e-05 895 1
(0.046796 -0.014591 -0.00077445)(-6.9015 0 0) 1.276e-05 895 1
(0.046796 -0.0092366 0.0038398)(-6.022 0 0) 1.276e-05 895 1
(0.046796 -0.011331 0.0029405)(-10.4095 0 0) 1.276e-05 895 1
(0.046796 -0.010744 -0.00189)(-11.1783 0 0) 1.276e-05 895 1
(0.046796 -0.011478 0.0035836)(-9.0695 0 0) 1.276e-05 895 1
(0.046796 -0.0076056 0.0024838)(-7.9164 0 0) 1.276e-05 895 1
(0.046796 -0.011086 0.0009619)(-11.3945 0 0) 1.276e-05 895 1
(0.046796 -0.011847 -0.00060101)(-11.3351 0 0) 1.276e-05 895 1
(0.046796 -0.0072716 0.001807)(-8.4993 0 0) 1.276e-05 895 1
(0.046796 -0.0065682 -0.00019102)(-6.2615 0 0) 1.276e-05 895 1
(0.046796 -0.0093162 0.0013639)(-11.1761 0 0) 1.276e-05 895 1
(0.046796 -0.012387 -0.00042147)(-11.2113 0 0) 1.276e-05 895 1
(0.046796 -0.012583 0.0027094)(-9.9332 0 0) 1.276e-05 895 1
(0.046796 -0.0077132 0.0029604)(-4.109 0 0) 1.276e-05 895 1
(0.046796 -0.012606 -0.0019261)(-10.6933 0 0) 1.276e-05 895 1
(0.046796 -0.0093219 -4.3912e-05)(-11.3427 0 0) 1.276e-05 895 1
(0.046796 -0.0073098 0.00038949)(-9.9052 0 0) 1.276e-05 895 1
(0.046796 -0.012666 -0.0030656)(-9.086 0 0) 1.276e-05 895 1
(0.046796 -0.013028 -0.0032426)(-6.9062 0 0) 1.276e-05 895 1
(0.046796 -0.0086446 7.6383e-05)(-11.1388 0 0) 1.276e-05 895 1
(0.046796 -0.0078282 0.0019954)(-9.7104 0 0) 1.276e-05 895 1
(0.046796 -0.013976 1.8188e-05)(-9.9275 0 0) 1.276e-05 895 1
(0.046796 -0.012871 -0.00011735)(-11.0266 0 0) 1.276e-05 895 1
(0.046796 -0.010912 0.0028339)(-10.6036 0 0) 1.276e-05 895 1
(0.046796 -0.0081173 0.0031224)(-7.0943 0 0) 1.276e-05 895 1
(0.046796 -0.012068 0.0019959)(-10.8954 0 0) 1.276e-05 895 1
(0.046796 -0.010909 -0.0027017)(-10.7288 0 0) 1.276e-05 895 1
(0.046796 -0.012184 -0.00092651)(-11.2101 0 0) 1.276e-05 895 1
(0.046796 -0.013354 0.00073878)(-10.6349 0 0) 1.276e-05 895 1
(0.046796 -0.011918 -0.0038386)(-6.673 0 0) 1.276e-05 895 1
(0.046796 -0.0080155 -0.0012936)(-10.5231 0 0) 1.276e-05 895 1
(0.046796 -0.010404 -0.001258)(-11.3508 0 0) 1.276e-05 895 1
(0.046796 -0.0080952 0.0021705)(-9.9196 0 0) 1.276e-05 895 1
(0.046796 -0.01043 0.0024242)(-10.9103 0 0) 1.276e-05 895 1
(0.046796 -0.0066707 1.7472e-05)(-7.5447 0 0) 1.276e-05 895 1
(0.046796 -0.011104 0.0010653)(-11.3748 0 0) 1.276e-05 895 1
(0.046796 -0.010669 0.0012623)(-11.3544 0 0) 1.276e-05 895 1
(0.046796 -0.0081688 0.0010058)(-10.7678 0 0) 1.276e-05 895 1
(0.046796 -0.012155 -0.0038841)(-3.779 0 0) 1.276e-05 895 1
(0.046796 -0.01276 0.0028673)(-9.4142 0 0) 1.276e-05 895 1
(0.046796 -0.011932 0.00044821)(-11.3308 0 0) 1.276e-05 895 1
(0.046796 -0.011215 -0.0032238)(-10.0409 0 0) 1.276e-05 895 1
(0.046796 -0.0066942 0.00052909)(-7.4383 0 0) 1.276e-05 895 1
(0.046796 -0.0078835 0.0028949)(-7.2746 0 0) 1.276e-05 895 1
(0.046796 -0.013857 0.00067683)(-10.0145 0 0) 1.276e-05 895 1
(0.046796 -0.010906 0.00058572)(-11.4618 0 0) 1.276e-05 895 1
(0.046796 -0.013377 0.0017017)(-10.1232 0 0) 1.276e-05 895 1
(0.046796 -0.0085724 0.0025333)(-10.0522 0 0) 1.276e-05 895 1
(0.046796 -0.013438 0.0022362)(-9.3699 0 0) 1.276e-05 895 1
(0.046796 -0.0075726 0.0020489)(-9.05 0 0) 1.276e-05 895 1
(0.046796 -0.0070095 0.00096825)(-8.7928 0 0) 1.276e-05 895 1
(0.046796 -0.0098087 -0.0019779)(-11.0726 0 0) 1.276e-05 895 1
(0.046796 -0.011765 -0.0023266)(-10.8163 0 0) 1.276e-05 895 1
(0.046796 -0.012597 -0.0019275)(-10.6985 0 0) 1.276e-05 895 1
(0.046796 -0.0082405 0.0027794)(-9.1059 0 0) 1.276e-05 895 1
(0.046796 -0.0090672 0.00021907)(-11.2764 0 0) 1.276e-05 895 1
(0.046796 -0.0080445 -0.0028417)(-8.3616 0 0) 1.276e-05 895 1
(0.046796 -0.011768 -0.00029415)(-11.3738 0 0) 1.276e-05 895 1
(0.046796 -0.0081657 0.0017984)(-10.3647 0 0) 1.276e-05 895 1
(0.046796 -0.0095636 -0.0017723)(-11.1055 0 0) 1.276e-05 895 1
(0.046796 -0.012222 0.0019803)(-10.8442 0 0) 1.276e-05 895 1
(0.046796 -0.012109 -0.0027566)(-10.2733 0 0) 1.276e-05 895 1
(0.046796 -0.0099325 0.003004)(-10.3269 0 0) 1.276e-05 895 1
(0.046796 -0.0088186 0.0020518)(-10.7049 0 0) 1.276e-05 895 1
(0.046796 -0.0079314 -0.0024483)(-9.1741 0 0) 1.276e-05 895 1
(0.046796 -0.0070223 0.0008879)(-8.9202 0 0) 1.276e-05 895 1
(0.046796 -0.012913 -0.0018599)(-10.5064 0 0) 1.276e-05 895 1
(0.046796 -0.0088709 0.0031175)(-9.371 0 0) 1.276e-05 895 1
(0.046796 -0.013495 0.0020035)(-9.6109 0 0) 1.276e-05 895 1
(0.046796 -0.010744 -0.0032281)(-10.1155 0 0) 1.276e-05 895 1
(0.046796 -0.011005 -0.0034315)(-9.699 0 0) 1.276e-05 895 1
(0.046796 -0.011998 0.0019117)(-10.9662 0 0) 1.276e-05 895 1
(0.046796 -0.007204 0.00012078)(-9.7327 0 0) 1.276e-05 895 1
(0.046796 -0.0078791 -0.0016882)(-10.109 0 0) 1.276e-05 895 1
(0.046796 -0.013631 -0.0010433)(-10.2083 0 0) 1.276e-05 895 1
(0.046796 -0.0073416 -0.0018272)(-8.7363 0 0) 1.276e-05 895 1
(0.046796 -0.0094507 0.0015847)(-11.1447 0 0) 1.276e-05 895 1
(0.046796 -0.0099021 -0.0028959)(-10.4499 0 0) 1.276e-05 895 1
(0.046796 -0.012768 -0.0017283)(-10.7035 0 0) 1.276e-05 895 1
(0.046796 -0.0079192 0.00043934)(-10.6941 0 0) 1.276e-05 895 1
(0.046796 -0.0072405 0.00069558)(-9.6621 0 0) 1.276e-05 895 1
(0.046796 -0.0097591 0.0020098)(-11.0485 0 0) 1.276e-05 895 1
(0.046796 -0.01314 -0.0023108)(-9.7949 0 0) 1.276e-05 895 1
(0.046796 -0.0097572 -0.00080352)(-11.3691 0 0) 1.276e-05 895 1
(0.046796 -0.0067687 0.00091545)(-7.466 0 0) 1.276e-05 895 1
(0.046796 -0.010871 -0.00087263)(-11.4223 0 0) 1.276e-05 895 1
(0.046796 -0.011399 -0.0014458)(-11.2629 0 0) 1.276e-05 895 1
(0.046796 -0.0078345 -0.0022839)(-9.2777 0 0) 1.276e-05 895 1
(0.046796 -0.0083322 -0.00031594)(-10.9775 0 0) 1.276e-05 895 1
(0.046796 -0.008064 -0.0010807)(-10.6581 0 0) 1.276e-05 895 1
(0.046796 -0.010949 -0.0034197)(-9.7366 0 0) 1.276e-05 895 1
(0.046796 -0.010003 -0.0023026)(-10.9406 0 0) 1.276e-05 895 1
(0.046796 -0.01228 -0.0030237)(-9.7208 0 0) 1.276e-05 895 1
(0.046796 -0.014643 0.0011771)(-3.6076 0 0) 1.276e-05 895 1
(0.046796 -0.0092243 -0.0033594)(-9.1891 0 0) 1.276e-05 895 1
(0.046796 -0.0092226 -0.00057749)(-11.2919 0 0) 1.276e-05 895 1
(0.046796 -0.0066306 0.00011734)(-7.1374 0 0) 1.276e-05 895 1
(0.046796 -0.010626 0.001477)(-11.305 0 0) 1.276e-05 895 1
(0.046796 -0.0084502 0.0014996)(-10.777 0 0) 1.276e-05 895 1
(0.046796 -0.0079586 -0.00052714)(-10.7156 0 0) 1.276e-05 895 1
(0.046796 -0.0077193 0.0014794)(-10.0464 0 0) 1.276e-05 895 1
(0.046796 -0.0084921 -0.0019462)(-10.5524 0 0) 1.276e-05 895 1
(0.046796 -0.0092658 -0.0016813)(-11.0602 0 0) 1.276e-05 895 1
(0.046796 -0.0097124 -0.0031706)(-9.9926 0 0) 1.276e-05 895 1
(0.046796 -0.011765 -0.0031901)(-9.8407 0 0) 1.276e-05 895 1
(0.046796 -0.010957 -0.001191)(-11.3607 0 0) 1.276e-05 895 1
(0.046796 -0.0082678 -0.0012677)(-10.7517 0 0) 1.276e-05 895 1
(0.046796 -0.011004 0.0021313)(-11.0638 0 0) 1.276e-05 895 1
(0.046796 -0.010859 -0.0013172)(-11.3384 0 0) 1.276e-05 895 1
(0.046796 -0.010249 -0.0038615)(-8.1671 0 0) 1.276e-05 895 1
(0.046796 -0.01028 -0.0034985)(-9.5457 0 0) 1.276e-05 895 1
(0.046796 -0.012811 -0.0008861)(-10.966 0 0) 1.276e-05 895 1
(0.046796 -0.0090742 -0.0022233)(-10.7265 0 0) 1.276e-05 895 1
(0.046796 -0.0088228 0.0032396)(-8.9552 0 0) 1.276e-05 895 1
(0.046796 -0.0086523 -0.0017399)(-10.7848 0 0) 1.276e-05 895 1
(0.046796 -0.0088625 -0.0015542)(-10.9587 0 0) 1.276e-05 895 1
(0.046796 -0.0069392 0.00052132)(-8.8731 0 0) 1.276e-05 895 1
(0.046796 -0.0075348 0.002063)(-8.9075 0 0) 1.276e-05 895 1
(0.046796 -0.0082717 0.0025113)(-9.701 0 0) 1.276e-05 895 1
(0.046796 -0.01106 0.0017792)(-11.2012 0 0) 1.276e-05 895 1
(0.046796 -0.012077 -0.0027243)(-10.3327 0 0) 1.276e-05 895 1
(0.046796 -0.0078672 0.0017988)(-9.9921 0 0) 1.276e-05 895 1
(0.046796 -0.012097 0.0027277)(-10.3165 0 0) 1.276e-05 895 1
(0.046796 -0.010436 -0.003293)(-9.9991 0 0) 1.276e-05 895 1
(0.046796 -0.0078448 0.00083851)(-10.5317 0 0) 1.276e-05 895 1
(0.046796 -0.00794 -0.00039744)(-10.7188 0 0) 1.276e-05 895 1
(0.046796 -0.011751 0.00052315)(-11.3612 0 0) 1.276e-05 895 1
(0.046796 -0.010954 -0.0020526)(-11.1035 0 0) 1.276e-05 895 1
(0.046796 -0.012535 6.7852e-05)(-11.1761 0 0) 1.276e-05 895 1
(0.046796 -0.012402 -0.00077776)(-11.165 0 0) 1.276e-05 895 1
(0.046796 -0.013975 -0.00067654)(-9.7974 0 0) 1.276e-05 895 1
(0.046796 -0.012268 -0.0016767)(-10.9707 0 0) 1.276e-05 895 1
(0.046796 -0.013747 -0.00049751)(-10.2381 0 0) 1.276e-05 895 1
(0.046796 -0.013722 -0.0004361)(-10.2863 0 0) 1.276e-05 895 1
(0.046796 -0.012129 -0.00026309)(-11.2956 0 0) 1.276e-05 895 1
(0.046796 -0.0091376 -0.0034743)(-8.6684 0 0) 1.276e-05 895 1
(0.046796 -0.010374 0.0026817)(-10.7461 0 0) 1.276e-05 895 1
(0.046796 -0.01088 0.0023548)(-10.9539 0 0) 1.276e-05 895 1
(0.046796 -0.011362 -0.0033458)(-9.7592 0 0) 1.276e-05 895 1
(0.046796 -0.010839 -0.0012353)(-11.3568 0 0) 1.276e-05 895 1