/*--------------------------------*- C++ -*----------------------------------*\
| =========                 |                                                 |
| \\      /  F ield         | OpenFOAM: The Open Source CFD Toolbox           |
|  \\    /   O peration     | Version:  4.x                                   |
|   \\  /    A nd           | Web:      www.OpenFOAM.org                      |
|    \\/     M anipulation  |                                                 |
\*---------------------------------------------------------------------------*/
FoamFile
{
    version     2.0;
    format      ascii;
    class       dictionary;
    location    "constant";
    object      transportProperties;
}
// * * * * * * * * * * * * * * * * * * * * * * * * * * * * * * * * * * * * * //

transportModel  Newtonian;

nu  nu  [0 2 -1 0 0 0 0] 1.54374362E-5;

rhoInf  rhoInf  [ 1 -3 0 0 0 0 0 ] 1.18543;

rho  rho  [ 1 -3 0 0 0 0 0 ] 1.18543;

/*
// RK4Foam
delPx       0.0;
delPy       0.0;
delPz       0.0;
*/


// nAveragingTimeSteps     10; // Para *FoamConditional


// ************************************************************************* //
