/*--------------------------------*- C++ -*----------------------------------*\
| =========                 |                                                 |
| \\      /  F ield         | OpenFOAM: The Open Source CFD Toolbox           |
|  \\    /   O peration     | Version:  4.x                                   |
|   \\  /    A nd           | Web:      www.OpenFOAM.org                      |
|    \\/     M anipulation  |                                                 |
\*---------------------------------------------------------------------------*/
FoamFile
{
    version     2.0;
    format      ascii;
    class       dictionary;
    object      turbulenceProperties;
}
// * * * * * * * * * * * * * * * * * * * * * * * * * * * * * * * * * * * * * //

simulationType laminar;

LES
{
    LESModel        WALE; // WALE; // kEqn; SpalartAllmarasDDES; dynamicKEqn; WALE; Smagorinsky

    turbulence      on;

    printCoeffs     on;

    delta           cubeRootVol;

    cubeRootVolCoeffs
    {
        deltaCoeff      1;
    }
    
     vanDriestCoeffs
    {
        delta           cubeRootVol;
        cubeRootVolCoeffs
        {
            deltaCoeff      1;
        }

        smoothCoeffs
        {
            delta           cubeRootVol;
            cubeRootVolCoeffs
            {
                deltaCoeff      1;
            }

            maxDeltaRatio   1.1;
        }

        Aplus           26;
        Cdelta          0.158;
    }
    
}

RAS
{
    RASModel            kOmegaSST; // kEpsilon (wall modeled), kOmegaSST (wall resolved)

    turbulence          on;

    printCoeffs         on;
}

// ************************************************************************* //
